Geom Title=SP
Program Version=4.10
Viewing Rectangle= 315966.09704757 , 316091.40912469 , 6376854.7923608 , 6375969.19155902 

River Reach=EL SECO         ,2.8-911.05      
Reach XY= 48 
       315971.69      6376846.11       315971.66      6376845.53
       315971.48      6376845.44        315970.9      6376845.09
       315971.62      6376843.92       315972.34      6376842.74
       315972.52      6376841.87       315970.07      6376815.45
       315968.66      6376799.79       315973.36      6376783.63
       315979.67      6376769.07         315990.      6376746.54
       316004.33      6376727.92       316016.91       6376699.3
       316024.32      6376669.59       316024.49      6376647.51
       316023.97      6376623.78       316025.43      6376596.07
       316025.86      6376572.96       316025.04      6376548.55
       316026.12      6376515.37       316027.55       6376487.5
       316023.02      6376463.39       316018.29      6376441.43
       316021.34       6376395.4       316026.83      6376361.46
       316032.39      6376339.36       316034.59      6376305.07
         316034.      6376276.46       316035.59       6376258.9
       316024.57       6376242.3       316010.87      6376226.16
       316001.97      6376214.94       316001.71      6376209.91
       316012.64      6376187.48       316024.95      6376155.92
       316034.08      6376128.91       316041.85      6376101.82
       316048.94      6376083.74       316049.46      6376082.37
       316049.64      6376081.45       316049.73       6376081.2
        316050.7      6376079.04       316052.54      6376074.88
       316053.01      6376073.97       316059.95       6376055.3
       316074.67      6376015.46        316088.3      6375978.57
Rch Text X Y=316000.8425,6376629.225
Reverse River Text= 0 

Type RM Length L Ch R = 1 ,97      ,0.2,0.2,0.2
BEGIN DESCRIPTION:
STATION: 2.8
END DESCRIPTION:
XS GIS Cut Line=3
315973.312134216 6376844.9946169315971.6100014286376843.94450073
 315969.907868646376842.89438456
Node Last Edited Time=mar/30/2026 10:57:16
#Sta/Elev= 19 
     -2 479.79     -1.1 479.77    -0.39 479.64    -0.29 479.31    -0.28 478.82
      0  478.8      0.1 478.79     0.25 478.78     0.28 478.78     0.28 478.81
   0.34 479.58     0.49 479.58     0.92 479.63     0.96 479.24     0.98    479
   1.09 479.09      1.4 479.25     1.67 479.33        2  479.3
#Mann= 3 , 0 , 0 
       0    .025       0       0    .025       0       4    .025       0
Levee=0,,,-1,2.92,,,
Bank Sta=0,4
XS Rating Curve= 0 ,0
Exp/Cntr=0.3,0.1

Type RM Length L Ch R = 1 ,96      ,7,7,7
BEGIN DESCRIPTION:
STATION: 3
END DESCRIPTION:
XS GIS Cut Line=3
315973.4126094316376844.82819138315971.710447126  6376843.778057
315970.0083438566376842.72795903
Node Last Edited Time=mar/30/2026 10:57:24
#Sta/Elev= 17 
     -2 479.83    -1.19 479.81    -0.69 479.72    -0.46    479    -0.29 478.82
      0 478.82     0.14 478.81     0.29  478.8     0.32 478.93     0.37 479.58
   0.98 479.62     1.03 479.62     1.04 479.55     1.11 479.03     1.39 479.17
   1.72 479.26        2 479.24
#Mann= 3 , 0 , 0 
       0    .025       0       0    .025       0       4    .025       0
Levee=0,,,-1,3.03,,,
Bank Sta=0,4
XS Rating Curve= 0 ,0
Exp/Cntr=0.3,0.1

Type RM Length L Ch R = 1 ,95      ,10,10,10
BEGIN DESCRIPTION:
STATION: 10
END DESCRIPTION:
XS GIS Cut Line=3
315974.0591112126376836.80478498315972.0676684396376836.98959755
315970.0762256676376837.17441011
Node Last Edited Time=mar/30/2026 10:51:36
#Sta/Elev= 11 
     -2 479.91    -0.63 479.93    -0.49 479.15    -0.29 478.94        0 478.95
   0.17 478.95     0.25 478.96     0.29 478.98     0.37 479.91     0.52 480.08
      2 480.09
#Mann= 3 , 0 , 0 
       0    .025       0       0    .025       0       4    .025       0
Bank Sta=0,4
XS Rating Curve= 0 ,0
Exp/Cntr=0.3,0.1

Type RM Length L Ch R = 1 ,94      ,10,10,10
BEGIN DESCRIPTION:
STATION: 20
END DESCRIPTION:
XS GIS Cut Line=3
 315973.135048396376826.84757112315971.1436056186376827.03238369
315969.1521628456376827.21719625
Node Last Edited Time=mar/30/2026 10:51:36
#Sta/Elev= 11 
     -2 479.94    -0.99 479.96    -0.91 479.54    -0.29 478.91    -0.05 478.92
      0 478.93     0.17 478.96     0.29 479.01     0.34 479.51     0.79 480.04
      2 480.05
#Mann= 3 , 0 , 0 
       0    .025       0       0    .025       0       4    .025       0
Bank Sta=0,4
XS Rating Curve= 0 ,0
Exp/Cntr=0.3,0.1

Type RM Length L Ch R = 1 ,93      ,10,10,10
BEGIN DESCRIPTION:
STATION: 30
END DESCRIPTION:
XS GIS Cut Line=3
315972.2109855696376816.89035726315970.2195427976376817.07516982
315968.2281000246376817.25998239
Node Last Edited Time=mar/30/2026 10:51:36
#Sta/Elev= 13 
     -2 479.99     -1.8 479.99    -1.56 479.98    -1.34 479.99    -1.33 479.94
   -0.3 478.89    -0.27 478.89        0 478.93      0.1 478.95      0.3 479.04
   0.31 479.11     1.07    480        2    480
#Mann= 3 , 0 , 0 
       0    .025       0       0    .025       0       4    .025       0
Bank Sta=0,4
XS Rating Curve= 0 ,0
Exp/Cntr=0.3,0.1

Type RM Length L Ch R = 1 ,92      ,10,10,10
BEGIN DESCRIPTION:
STATION: 40
END DESCRIPTION:
XS GIS Cut Line=3
315971.3094463146376806.93639356 315969.317521836376807.11593979
315967.3255973466376807.29548603
Node Last Edited Time=mar/30/2026 10:51:36
#Sta/Elev= 11 
     -2 479.75    -0.95  479.8    -0.45 479.29    -0.28 478.86    -0.17 478.88
      0 478.93     0.11 478.96     0.28 478.93     0.41 479.18     0.78 479.63
      2 479.63
#Mann= 3 , 0 , 0 
       0    .025       0       0    .025       0       4    .025       0
Bank Sta=0,4
XS Rating Curve= 0 ,0
Exp/Cntr=0.3,0.1

Type RM Length L Ch R = 1 ,91      ,1,1,1
BEGIN DESCRIPTION:
STATION: 50
END DESCRIPTION:
XS GIS Cut Line=3
315971.3157563696376797.80942453315969.3953459576376797.25083358
315967.4749355456376796.69224263
Node Last Edited Time=mar/30/2026 10:51:36
#Sta/Elev= 10 
     -2 479.49     -0.6 479.58    -0.53 479.45    -0.26 478.77    -0.17 478.77
      0 478.77     0.26 478.77     0.49 479.18     0.52 479.24        2 479.24
#Mann= 3 , 0 , 0 
       0    .025       0       0    .025       0       4    .025       0
Bank Sta=0,4
XS Rating Curve= 0 ,0
Exp/Cntr=0.3,0.1

Type RM Length L Ch R = 1 ,90      ,9,9,9
BEGIN DESCRIPTION:
STATION: 51
END DESCRIPTION:
XS GIS Cut Line=3
315971.5950518456376796.84921932315969.6746414336376796.29062837
315967.7542310216376795.73203742
Node Last Edited Time=mar/30/2026 10:51:36
#Sta/Elev= 10 
     -2 479.47    -0.62 479.56    -0.51 479.38    -0.26 478.75    -0.14 478.75
      0 478.75     0.26 478.75     0.47 479.12     0.53 479.23        2 479.23
#Mann= 3 , 0 , 0 
       0    .025       0       0    .025       0       4    .025       0
Bank Sta=0,4
XS Rating Curve= 0 ,0
Exp/Cntr=0.3,0.1

Type RM Length L Ch R = 1 ,89      ,10,10,10
BEGIN DESCRIPTION:
STATION: 60
END DESCRIPTION:
XS GIS Cut Line=3
315974.1087111186376788.20737247315972.1883007066376787.64878152
315970.2678902946376787.09019057
Node Last Edited Time=mar/30/2026 10:51:36
#Sta/Elev= 10 
     -2 479.28    -0.73 479.36    -0.37 478.71    -0.29 478.51        0 478.51
   0.16 478.52     0.29 478.51     0.36 478.63     0.61 479.13        2 479.13
#Mann= 3 , 0 , 0 
       0    .025       0       0    .025       0       4    .025       0
Bank Sta=0,4
XS Rating Curve= 0 ,0
Exp/Cntr=0.3,0.1

Type RM Length L Ch R = 1 ,88      ,10,10,10
BEGIN DESCRIPTION:
STATION: 70
END DESCRIPTION:
XS GIS Cut Line=3
315977.5056078626376779.09133946315975.6707926956376778.29544167
315973.8359775286376777.49954387
Node Last Edited Time=mar/30/2026 10:51:36
#Sta/Elev= 10 
     -2 479.05    -0.72 479.14    -0.62 478.81    -0.32 478.26    -0.06 478.26
      0 478.26     0.32 478.26     0.54 478.68     0.62 479.02        2 479.01
#Mann= 3 , 0 , 0 
       0    .025       0       0    .025       0       4    .025       0
Bank Sta=0,4
XS Rating Curve= 0 ,0
Exp/Cntr=0.3,0.1

Type RM Length L Ch R = 1 ,87      ,10,10,10
BEGIN DESCRIPTION:
STATION: 80
END DESCRIPTION:
XS GIS Cut Line=3
315981.4850968466376769.91726363315979.6502816796376769.12136583
315977.8154665126376768.32546804
Node Last Edited Time=mar/30/2026 10:51:36
#Sta/Elev= 10 
     -2 478.82    -0.62 478.92    -0.35 478.01    -0.34    478        0    478
   0.34    478     0.35    478     0.57 478.91     0.65 478.91        2 478.88
#Mann= 3 , 0 , 0 
       0    .025       0       0    .025       0       4    .025       0
Bank Sta=0,4
XS Rating Curve= 0 ,0
Exp/Cntr=0.3,0.1

Type RM Length L Ch R = 1 ,86      ,10,10,10
BEGIN DESCRIPTION:
STATION: 90
END DESCRIPTION:
XS GIS Cut Line=3
315985.6336750376376760.86340898 315983.815528866376760.03013563
315981.9973826846376759.19686228
Node Last Edited Time=mar/30/2026 10:51:36
#Sta/Elev= 10 
     -2  478.4    -0.59 478.48    -0.47  478.3    -0.31 477.75     -0.1 477.75
      0 477.75     0.31 477.74     0.45 478.29      0.6 478.63        2  478.6
#Mann= 3 , 0 , 0 
       0    .025       0       0    .025       0       4    .025       0
Bank Sta=0,4
XS Rating Curve= 0 ,0
Exp/Cntr=0.3,0.1

Type RM Length L Ch R = 1 ,85      ,10,10,10
BEGIN DESCRIPTION:
STATION: 100
END DESCRIPTION:
XS GIS Cut Line=3
315989.800041799 6376751.7726781315987.9818956226376750.93940475
315986.1637494466376750.10613139
Node Last Edited Time=mar/30/2026 10:51:36
#Sta/Elev= 10 
     -2 477.95    -0.57 478.04    -0.33 477.67    -0.28 477.49        0 477.49
   0.14 477.49     0.28 477.49     0.32 477.67     0.62 478.35        2 478.32
#Mann= 3 , 0 , 0 
       0    .025       0       0    .025       0       4    .025       0
Bank Sta=0,4
XS Rating Curve= 0 ,0
Exp/Cntr=0.3,0.1

Type RM Length L Ch R = 1 ,84      ,10,10,10
BEGIN DESCRIPTION:
STATION: 110
END DESCRIPTION:
XS GIS Cut Line=3
315994.7314403046376743.67088822 315993.146561976376742.45098631
315991.561683636 6376741.2310844
Node Last Edited Time=mar/30/2026 10:51:36
#Sta/Elev= 12 
     -2 477.72    -0.55 477.76    -0.48  477.6    -0.26 477.24    -0.15 477.24
      0 477.24     0.26 477.23     0.53 477.89     0.63 478.07     1.35 478.07
   1.98 478.06        2 478.06
#Mann= 3 , 0 , 0 
       0    .025       0       0    .025       0       4    .025       0
Bank Sta=0,4
XS Rating Curve= 0 ,0
Exp/Cntr=0.3,0.1

Type RM Length L Ch R = 1 ,83      ,10,10,10
BEGIN DESCRIPTION:
STATION: 120
END DESCRIPTION:
XS GIS Cut Line=3
316000.8309498476376735.74649655315999.2460715136376734.52659464
315997.6611931796376733.30669273
Node Last Edited Time=mar/30/2026 10:51:36
#Sta/Elev= 10 
     -2 477.61    -0.57 477.65    -0.36 477.16    -0.26    477        0 476.98
   0.08 476.98     0.26 476.98     0.38 477.28     0.68 477.79        2 477.79
#Mann= 3 , 0 , 0 
       0    .025       0       0    .025       0       4    .025       0
Bank Sta=0,4
XS Rating Curve= 0 ,0
Exp/Cntr=0.3,0.1

Type RM Length L Ch R = 1 ,82      ,10,10,10
BEGIN DESCRIPTION:
STATION: 130
END DESCRIPTION:
XS GIS Cut Line=3
316006.8302963076376727.20178007316004.9993656576376726.39698634
316003.168435007 6376725.5921926
Node Last Edited Time=mar/30/2026 10:51:36
#Sta/Elev= 10 
     -2 477.39    -0.68 477.51    -0.66 477.48    -0.29 476.75    -0.26 476.75
      0 476.74     0.29 476.73     0.66 477.48     0.67 477.52        2 477.52
#Mann= 3 , 0 , 0 
       0    .025       0       0    .025       0       4    .025       0
Bank Sta=0,4
XS Rating Curve= 0 ,0
Exp/Cntr=0.3,0.1

Type RM Length L Ch R = 1 ,81      ,10,10,10
BEGIN DESCRIPTION:
STATION: 140
END DESCRIPTION:
XS GIS Cut Line=3
316010.8542649766376718.04712682316009.0233343266376717.24233309
316007.1924036756376716.43753935
Node Last Edited Time=mar/30/2026 10:51:36
#Sta/Elev= 10 
     -2 477.09    -0.72 477.21    -0.54 476.97    -0.29 476.49    -0.07 476.49
      0 476.48     0.29 476.47     0.53 476.97     0.67 477.24        2 477.24
#Mann= 3 , 0 , 0 
       0    .025       0       0    .025       0       4    .025       0
Bank Sta=0,4
XS Rating Curve= 0 ,0
Exp/Cntr=0.3,0.1

Type RM Length L Ch R = 1 ,80      ,10,10,10
BEGIN DESCRIPTION:
STATION: 150
END DESCRIPTION:
XS GIS Cut Line=3
316014.8782336446376708.89247357316013.0473029946376708.08767984
316011.216372344 6376707.2828861
Node Last Edited Time=mar/30/2026 10:51:36
#Sta/Elev= 11 
     -2 476.79    -0.75 476.91    -0.41 476.46    -0.29 476.22        0 476.22
   0.11 476.22     0.29 476.22     0.41 476.46     0.67 476.95     1.65 476.96
      2 476.96
#Mann= 3 , 0 , 0 
       0    .025       0       0    .025       0       4    .025       0
Bank Sta=0,4
XS Rating Curve= 0 ,0
Exp/Cntr=0.3,0.1

Type RM Length L Ch R = 1 ,79      ,10,10,10
BEGIN DESCRIPTION:
STATION: 160
END DESCRIPTION:
XS GIS Cut Line=3
316018.9483522146376699.39515299316017.0077567296376698.91132537
316015.0671612446376698.42749775
Node Last Edited Time=mar/30/2026 10:51:36
#Sta/Elev= 11 
     -2 476.59    -0.86  476.6     -0.8  476.6    -0.31 475.97    -0.29 475.96
      0 475.96     0.29 475.96      0.3 475.97     0.68 476.67      0.7 476.68
      2 476.68
#Mann= 3 , 0 , 0 
       0    .025       0       0    .025       0       4    .025       0
Bank Sta=0,4
XS Rating Curve= 0 ,0
Exp/Cntr=0.3,0.1

Type RM Length L Ch R = 1 ,78      ,10,10,10
BEGIN DESCRIPTION:
STATION: 170
END DESCRIPTION:
XS GIS Cut Line=3
316021.3674903026376689.69217556316019.4268948186376689.20834794
316017.4862993336376688.72452032
Node Last Edited Time=mar/30/2026 10:51:36
#Sta/Elev= 12 
     -2 476.32    -0.91 476.31    -0.59 475.89    -0.27  475.7    -0.17 475.69
  -0.12  475.7        0  475.7     0.27  475.7     0.48 475.87     0.73 476.34
   1.09  476.4        2  476.4
#Mann= 3 , 0 , 0 
       0    .025       0       0    .025       0       4    .025       0
Bank Sta=0,4
XS Rating Curve= 0 ,0
Exp/Cntr=0.3,0.1

Type RM Length L Ch R = 1 ,77      ,10,10,10
BEGIN DESCRIPTION:
STATION: 180
END DESCRIPTION:
XS GIS Cut Line=3
 316023.786628396376679.98919814316021.8460329056376679.50537052
 316019.90543742 6376679.0215429
Node Last Edited Time=mar/30/2026 10:51:36
#Sta/Elev= 12 
     -2 476.03    -1.03 476.02    -0.87 475.81    -0.25 475.45    -0.04 475.42
      0 475.43     0.05 475.45     0.25 475.45     0.66 475.77     0.79 476.01
   1.49 476.11        2 476.12
#Mann= 3 , 0 , 0 
       0    .025       0       0    .025       0       4    .025       0
Bank Sta=0,4
XS Rating Curve= 0 ,0
Exp/Cntr=0.3,0.1

Type RM Length L Ch R = 1 ,76      ,10,10,10
BEGIN DESCRIPTION:
STATION: 190
END DESCRIPTION:
XS GIS Cut Line=3
316026.2057664796376670.28622071316024.2651709946376669.80239309
316022.3245755096376669.31856548
Node Last Edited Time=mar/30/2026 10:51:36
#Sta/Elev= 11 
     -2 475.74    -1.53 475.74    -1.12 475.73    -0.92  475.6    -0.23 475.19
      0 475.16     0.08 475.15     0.23 475.19     0.84 475.67     1.89 475.83
      2 475.83
#Mann= 3 , 0 , 0 
       0    .025       0       0    .025       0       4    .025       0
Bank Sta=0,4
XS Rating Curve= 0 ,0
Exp/Cntr=0.3,0.1

Type RM Length L Ch R = 1 ,75      ,10,10,10
BEGIN DESCRIPTION:
STATION: 200
END DESCRIPTION:
XS GIS Cut Line=3
316026.3958858076376659.82512796316024.3959493126376659.80919005
316022.3960128176376659.79325214
Node Last Edited Time=mar/30/2026 10:51:36
#Sta/Elev= 12 
     -2 475.38    -0.98 475.38    -0.53 475.08    -0.27 474.89        0 474.91
   0.01 474.91     0.27 474.92     0.62 475.18     0.82 475.35     1.04 475.38
   1.76 475.51        2 475.51
#Mann= 3 , 0 , 0 
       0    .025       0       0    .025       0       4    .025       0
Bank Sta=0,4
XS Rating Curve= 0 ,0
Exp/Cntr=0.3,0.1

Type RM Length L Ch R = 1 ,74      ,10,10,10
BEGIN DESCRIPTION:
STATION: 210
END DESCRIPTION:
XS GIS Cut Line=3
316026.4755753756376649.82544549 316024.475638886376649.80950758
316022.4757023856376649.79356966
Node Last Edited Time=mar/30/2026 10:51:36
#Sta/Elev= 13 
     -2 475.04     -1.4 475.03    -0.91 475.03    -0.83 474.98    -0.31 474.59
      0 474.61     0.27 474.64     0.31 474.64     0.37 474.69      0.8 475.03
   1.23 475.07     1.75 475.17        2 475.17
#Mann= 3 , 0 , 0 
       0    .025       0       0    .025       0       4    .025       0
Bank Sta=0,4
XS Rating Curve= 0 ,0
Exp/Cntr=0.3,0.1

Type RM Length L Ch R = 1 ,73      ,10,10,10
BEGIN DESCRIPTION:
STATION: 220
END DESCRIPTION:
XS GIS Cut Line=3
316026.3233903786376639.76725058316024.3238790846376639.81146126
316022.3243677896376639.85567194
Node Last Edited Time=mar/30/2026 10:51:36
#Sta/Elev= 13 
     -2 474.74    -1.01 474.74    -0.62 474.44    -0.28 474.27    -0.07 474.28
      0 474.29     0.04  474.3     0.28 474.32     0.59 474.58     0.85 474.74
   1.18 474.77     1.51 474.83        2 474.83
#Mann= 3 , 0 , 0 
       0    .025       0       0    .025       0       4    .025       0
Bank Sta=0,4
XS Rating Curve= 0 ,0
Exp/Cntr=0.3,0.1

Type RM Length L Ch R = 1 ,72      ,10,10,10
BEGIN DESCRIPTION:
STATION: 230
END DESCRIPTION:
XS GIS Cut Line=3
316026.102336972 6376629.7696941316024.1028256776376629.81390479
316022.1033143836376629.85811547
Node Last Edited Time=mar/30/2026 10:51:36
#Sta/Elev= 13 
     -2 474.46    -1.16 474.46    -1.01 474.35    -0.21 473.94    -0.14 473.94
      0 473.96     0.12 473.99     0.21 473.99     0.33 474.09     0.95 474.45
   1.07 474.47      1.2 474.49        2 474.49
#Mann= 3 , 0 , 0 
       0    .025       0       0    .025       0       4    .025       0
Bank Sta=0,4
XS Rating Curve= 0 ,0
Exp/Cntr=0.3,0.1

Type RM Length L Ch R = 1 ,71      ,10,10,10
BEGIN DESCRIPTION:
STATION: 240
END DESCRIPTION:
XS GIS Cut Line=3
316026.1758186636376619.92626569 316024.178596566376619.82089078
316022.1813744576376619.71551587
Node Last Edited Time=mar/30/2026 10:51:36
#Sta/Elev= 12 
     -2 474.19     -1.2 474.19    -1.11 474.13    -0.19 473.66    -0.15 473.65
  -0.01 473.62        0 473.62     0.02 473.63     0.19 473.71     0.26 473.75
   0.97 474.17        2 474.17
#Mann= 3 , 0 , 0 
       0    .025       0       0    .025       0       4    .025       0
Bank Sta=0,4
XS Rating Curve= 0 ,0
Exp/Cntr=0.3,0.1

Type RM Length L Ch R = 1 ,70      ,10,10,10
BEGIN DESCRIPTION:
STATION: 250
END DESCRIPTION:
XS GIS Cut Line=3
316026.7026932066376609.94015517316024.7054711036376609.83478027
   316022.7082496376609.72940536
Node Last Edited Time=mar/30/2026 10:51:36
#Sta/Elev= 11 
     -2 473.93    -1.07 473.93    -0.75 473.73    -0.22 473.45    -0.08 473.42
      0  473.4     0.12 473.44     0.22 473.49     0.46 473.65     0.87 473.89
      2 473.88
#Mann= 3 , 0 , 0 
       0    .025       0       0    .025       0       4    .025       0
Bank Sta=0,4
XS Rating Curve= 0 ,0
Exp/Cntr=0.3,0.1

Type RM Length L Ch R = 1 ,69      ,10,10,10
BEGIN DESCRIPTION:
STATION: 260
END DESCRIPTION:
XS GIS Cut Line=3
316027.2295677486376599.95404466316025.2323456456376599.84866975
316023.2351235426376599.74329484
Node Last Edited Time=mar/30/2026 10:51:36
#Sta/Elev= 13 
     -2 473.67    -1.66 473.67    -0.95 473.66     -0.4 473.32    -0.25 473.24
  -0.01 473.19        0 473.18     0.01 473.18     0.23 473.25     0.25 473.27
   0.66 473.54     0.76  473.6        2  473.6
#Mann= 3 , 0 , 0 
       0    .025       0       0    .025       0       4    .025       0
Bank Sta=0,4
XS Rating Curve= 0 ,0
Exp/Cntr=0.3,0.1

Type RM Length L Ch R = 1 ,68      ,10,10,10
BEGIN DESCRIPTION:
STATION: 270
END DESCRIPTION:
XS GIS Cut Line=3
316027.5463315046376589.89201936316025.5466743966376589.85498627
316023.5470172886376589.81795318
Node Last Edited Time=mar/30/2026 10:51:36
#Sta/Elev= 10 
     -2 473.44       -1 473.42    -0.78 473.28    -0.31 472.98    -0.08 472.98
      0 472.98     0.31 472.99     0.57 473.11      0.9 473.34        2 473.34
#Mann= 3 , 0 , 0 
       0    .025       0       0    .025       0       4    .025       0
Bank Sta=0,4
XS Rating Curve= 0 ,0
Exp/Cntr=0.3,0.1

Type RM Length L Ch R = 1 ,67      ,10,10,10
BEGIN DESCRIPTION:
STATION: 280
END DESCRIPTION:
XS GIS Cut Line=3
316027.7314969576376579.89373382316025.7318398496376579.85670073
316023.7321827416376579.81966764
Node Last Edited Time=mar/30/2026 10:51:36
#Sta/Elev= 11 
     -2 473.19    -1.81 473.21    -1.14  473.2    -0.57 472.81    -0.38 472.69
      0 472.68     0.22 472.67     0.38 472.67     1.04    473     1.17 473.08
      2 473.08
#Mann= 3 , 0 , 0 
       0    .025       0       0    .025       0       4    .025       0
Bank Sta=0,4
XS Rating Curve= 0 ,0
Exp/Cntr=0.3,0.1

Type RM Length L Ch R = 1 ,66      ,10,10,10
BEGIN DESCRIPTION:
STATION: 290
END DESCRIPTION:
XS GIS Cut Line=3
316027.7540057276376569.79242659 316025.755135356376569.85963683
316023.7562649736376569.92684708
Node Last Edited Time=mar/30/2026 10:51:36
#Sta/Elev= 12 
     -2 472.89    -1.81  472.9    -1.18 472.91    -1.12 472.87     -0.4 472.39
      0 472.32     0.04 472.31     0.09 472.31     0.39 472.36     0.48 472.41
   1.29  472.8        2 472.79
#Mann= 3 , 0 , 0 
       0    .025       0       0    .025       0       4    .025       0
Bank Sta=0,4
XS Rating Curve= 0 ,0
Exp/Cntr=0.3,0.1

Type RM Length L Ch R = 1 ,65      ,10,10,10
BEGIN DESCRIPTION:
STATION: 300
END DESCRIPTION:
XS GIS Cut Line=3
316027.4179544966376559.79807471316025.4190841196376559.86528495
316023.420213743 6376559.9324952
Node Last Edited Time=mar/30/2026 10:51:36
#Sta/Elev= 11 
     -2 472.49    -0.96 472.51    -0.68 472.32     -0.3 472.06    -0.06 472.02
      0 472.02     0.13 472.02      0.3 472.04     0.64 472.23     1.07 472.44
      2 472.43
#Mann= 3 , 0 , 0 
       0    .025       0       0    .025       0       4    .025       0
Bank Sta=0,4
XS Rating Curve= 0 ,0
Exp/Cntr=0.3,0.1

Type RM Length L Ch R = 1 ,64      ,10,10,10
BEGIN DESCRIPTION:
STATION: 310
END DESCRIPTION:
XS GIS Cut Line=3
316027.0819032666376549.80372282316025.0830328896376549.87093307
316023.0841625126376549.93814331
Node Last Edited Time=mar/30/2026 10:51:36
#Sta/Elev= 11 
     -2 472.08    -0.73  472.1    -0.24 471.77     -0.2 471.74    -0.17 471.73
      0 471.73     0.18 471.72      0.2 471.72     0.81 472.06     0.85 472.08
      2 472.07
#Mann= 3 , 0 , 0 
       0    .025       0       0    .025       0       4    .025       0
Bank Sta=0,4
XS Rating Curve= 0 ,0
Exp/Cntr=0.3,0.1

Type RM Length L Ch R = 1 ,63      ,10,10,10
BEGIN DESCRIPTION:
STATION: 320
END DESCRIPTION:
XS GIS Cut Line=3
316027.3200646036376539.94144694316025.3211263476376539.87628676
316023.3221880916376539.81112659
Node Last Edited Time=mar/30/2026 10:51:36
#Sta/Elev= 11 
     -2 471.91    -0.95 471.92    -0.62 471.75    -0.25 471.49    -0.09 471.44
      0 471.44     0.12 471.44     0.25 471.47     0.45 471.64     0.92 471.91
      2 471.92
#Mann= 3 , 0 , 0 
       0    .025       0       0    .025       0       4    .025       0
Bank Sta=0,4
XS Rating Curve= 0 ,0
Exp/Cntr=0.3,0.1

Type RM Length L Ch R = 1 ,62      ,10,10,10
BEGIN DESCRIPTION:
STATION: 330
END DESCRIPTION:
XS GIS Cut Line=3
 316027.645865486376529.94675566316025.6469272246376529.88159548
316023.6479889686376529.81643531
Node Last Edited Time=mar/30/2026 10:51:36
#Sta/Elev= 11 
     -2 471.76    -1.25 471.76    -0.54  471.4    -0.31 471.24    -0.23 471.22
      0 471.21     0.24 471.21     0.31 471.23     0.76  471.6     1.03 471.76
      2 471.77
#Mann= 3 , 0 , 0 
       0    .025       0       0    .025       0       4    .025       0
Bank Sta=0,4
XS Rating Curve= 0 ,0
Exp/Cntr=0.3,0.1

Type RM Length L Ch R = 1 ,61      ,10,10,10
BEGIN DESCRIPTION:
STATION: 340
END DESCRIPTION:
XS GIS Cut Line=3
316027.9716663586376519.95206438316025.972728102 6376519.8869042
316023.9737898466376519.82174403
Node Last Edited Time=mar/30/2026 10:51:36
#Sta/Elev= 11 
     -2  471.6    -1.55  471.6    -0.45 471.05    -0.38    471    -0.36 470.99
      0 470.99     0.36 470.99     0.38 470.99     1.07 471.56     1.15 471.61
      2 471.62
#Mann= 3 , 0 , 0 
       0    .025       0       0    .025       0       4    .025       0
Bank Sta=0,4
XS Rating Curve= 0 ,0
Exp/Cntr=0.3,0.1

Type RM Length L Ch R = 1 ,60      ,10,10,10
BEGIN DESCRIPTION:
STATION: 350
END DESCRIPTION:
XS GIS Cut Line=3
316028.398179223 6376509.9989936316026.4008069986376509.89650361
316024.4034347746376509.79401362
Node Last Edited Time=mar/30/2026 10:51:36
#Sta/Elev= 11 
     -2 471.45    -1.54 471.45    -1.44  471.3    -0.39 470.77    -0.06  470.7
      0  470.7     0.05  470.7     0.39 470.77     0.63 470.91     1.27 471.43
      2 471.44
#Mann= 3 , 0 , 0 
       0    .025       0       0    .025       0       4    .025       0
Bank Sta=0,4
XS Rating Curve= 0 ,0
Exp/Cntr=0.3,0.1

Type RM Length L Ch R = 1 ,59      ,10,10,10
BEGIN DESCRIPTION:
STATION: 360
END DESCRIPTION:
XS GIS Cut Line=3
316028.9106291726376500.01213248316026.9132569476376499.90964249
316024.915884723 6376499.8071525
Node Last Edited Time=mar/30/2026 10:51:36
#Sta/Elev= 11 
     -2  471.3    -1.24  471.3    -0.92 470.85    -0.34 470.55    -0.16 470.51
      0 470.52     0.15 470.52     0.34 470.56     1.04 470.95     1.39 471.24
      2 471.25
#Mann= 3 , 0 , 0 
       0    .025       0       0    .025       0       4    .025       0
Bank Sta=0,4
XS Rating Curve= 0 ,0
Exp/Cntr=0.3,0.1

Type RM Length L Ch R = 1 ,58      ,10,10,10
BEGIN DESCRIPTION:
STATION: 370
END DESCRIPTION:
XS GIS Cut Line=3
316029.4230791216376490.02527136316027.4257068966376489.92278137
316025.4283346726376489.82029138
Node Last Edited Time=mar/30/2026 10:51:36
#Sta/Elev= 11 
     -2 471.14    -0.94 471.15    -0.41 470.39     -0.3 470.34    -0.26 470.33
      0 470.34     0.26 470.34      0.3 470.35     1.44    471     1.51 471.05
      2 471.06
#Mann= 3 , 0 , 0 
       0    .025       0       0    .025       0       4    .025       0
Bank Sta=0,4
XS Rating Curve= 0 ,0
Exp/Cntr=0.3,0.1

Type RM Length L Ch R = 1 ,57      ,10,10,10
BEGIN DESCRIPTION:
STATION: 380
END DESCRIPTION:
XS GIS Cut Line=3
316028.1177611096376479.68697456316026.1521151066376480.05607589
316024.1864691046376480.42517722
Node Last Edited Time=mar/30/2026 10:51:36
#Sta/Elev= 12 
     -2 471.09    -1.17 471.09    -0.76 470.52    -0.32 470.13    -0.12 470.13
  -0.05 470.13        0 470.13     0.13 470.15     0.32 470.17     1.16 470.67
    1.4 470.87        2 470.88
#Mann= 3 , 0 , 0 
       0    .025       0       0    .025       0       4    .025       0
Bank Sta=0,4
XS Rating Curve= 0 ,0
Exp/Cntr=0.3,0.1

Type RM Length L Ch R = 1 ,56      ,10,10,10
BEGIN DESCRIPTION:
STATION: 390
END DESCRIPTION:
XS GIS Cut Line=3
316026.2722544516376469.85874454316024.3066084486376470.22784588
316022.3409624466376470.59694721
Node Last Edited Time=mar/30/2026 10:51:36
#Sta/Elev= 12 
     -2 471.06    -1.57 471.06     -1.4 470.82    -0.37 469.93    -0.29 469.93
  -0.11 469.93        0 469.95      0.3 469.99     0.37    470     0.71  470.2
   1.29 470.68        2  470.7
#Mann= 3 , 0 , 0 
       0    .025       0       0    .025       0       4    .025       0
Bank Sta=0,4
XS Rating Curve= 0 ,0
Exp/Cntr=0.3,0.1

Type RM Length L Ch R = 1 ,55      ,10,10,10
BEGIN DESCRIPTION:
STATION: 400
END DESCRIPTION:
XS GIS Cut Line=3
316024.336114923 6376459.9940857316022.3810719366376460.41575727
316020.4260289496376460.83742885
Node Last Edited Time=mar/30/2026 10:51:36
#Sta/Elev= 12 
     -2 470.87    -1.71 470.88    -0.45 469.79     -0.4 469.74    -0.36 469.74
  -0.33 469.74     -0.1 469.74        0 469.76     0.39 469.82     1.08  470.4
   1.16 470.47        2 470.47
#Mann= 3 , 0 , 0 
       0    .025       0       0    .025       0       4    .025       0
Bank Sta=0,4
XS Rating Curve= 0 ,0
Exp/Cntr=0.3,0.1

Type RM Length L Ch R = 1 ,54      ,10,10,10
BEGIN DESCRIPTION:
STATION: 410
END DESCRIPTION:
XS GIS Cut Line=3
316022.2277570466376450.21887076316020.2727140596376450.64054233
316018.3176710726376451.06221391
Node Last Edited Time=mar/30/2026 10:51:36
#Sta/Elev= 12 
     -2  470.3    -1.19 470.32    -0.58 469.79    -0.33 469.56    -0.16 469.56
  -0.02 469.56        0 469.56     0.09 469.57     0.33  469.6     0.66 469.89
   1.01 470.19        2 470.19
#Mann= 3 , 0 , 0 
       0    .025       0       0    .025       0       4    .025       0
Bank Sta=0,4
XS Rating Curve= 0 ,0
Exp/Cntr=0.3,0.1

Type RM Length L Ch R = 1 ,53      ,10,10,10
BEGIN DESCRIPTION:
STATION: 420
END DESCRIPTION:
XS GIS Cut Line=3
316020.3191375876376440.98601235316018.3235209616376440.85367082
316016.3279043346376440.72132929
Node Last Edited Time=mar/30/2026 10:51:36
#Sta/Elev= 13 
     -2 469.87    -0.73 469.78    -0.69 469.78    -0.26 469.39    -0.26 469.38
  -0.25 469.38        0 469.38     0.03 469.38     0.25 469.39     0.26 469.39
   0.26  469.4      0.8 469.93        2 469.95
#Mann= 3 , 0 , 0 
       0    .025       0       0    .025       0       4    .025       0
Bank Sta=0,4
XS Rating Curve= 0 ,0
Exp/Cntr=0.3,0.1

Type RM Length L Ch R = 1 ,52      ,10,10,10
BEGIN DESCRIPTION:
STATION: 430
END DESCRIPTION:
XS GIS Cut Line=3
316020.9808452426376431.00792922316018.9852286166376430.87558769
 316016.989611996376430.74324616
Node Last Edited Time=mar/30/2026 10:51:36
#Sta/Elev= 13 
     -2 469.67    -1.67 469.65    -0.65 469.65    -0.31 469.34    -0.28 469.21
  -0.18  469.2        0  469.2     0.04 469.19     0.21  469.2     0.28 469.21
    0.4  469.4     0.82 469.81        2 469.84
#Mann= 3 , 0 , 0 
       0    .025       0       0    .025       0       4    .025       0
Bank Sta=0,4
XS Rating Curve= 0 ,0
Exp/Cntr=0.3,0.1

Type RM Length L Ch R = 1 ,51      ,10,10,10
BEGIN DESCRIPTION:
STATION: 440
END DESCRIPTION:
XS GIS Cut Line=3
316021.6425528986376421.02984609316019.6469362716376420.89750456
316017.6513196456376420.76516303
Node Last Edited Time=mar/30/2026 10:51:36
#Sta/Elev= 12 
     -2 469.51     -0.6 469.53    -0.36  469.3     -0.3 469.04    -0.11 469.02
      0 469.01     0.05 469.01     0.17 469.02      0.3 469.03     0.55  469.4
   0.85  469.7        2 469.72
#Mann= 3 , 0 , 0 
       0    .025       0       0    .025       0       4    .025       0
Bank Sta=0,4
XS Rating Curve= 0 ,0
Exp/Cntr=0.3,0.1

Type RM Length L Ch R = 1 ,50      ,10,10,10
BEGIN DESCRIPTION:
STATION: 450
END DESCRIPTION:
XS GIS Cut Line=3
316022.3042605536376411.05176296316020.3086439276376410.91942143
  316018.3130273 6376410.7870799